
OS:Version,
  {07afc51c-dbee-423f-b03a-b1a9b0633ae5}, !- Handle
  2.0.5;                                  !- Version Identifier

OS:Site,
  {0054f2b6-1892-4bfa-bace-dbcc20e3b38f}, !- Handle
  Site 1,                                 !- Name
  ,                                       !- Latitude {deg}
  ,                                       !- Longitude {deg}
  ,                                       !- Time Zone {hr}
  ,                                       !- Elevation {m}
  ;                                       !- Terrain

OS:YearDescription,
  {0dc6b807-da97-4e5c-87e2-02c774c46887}; !- Handle

OS:ClimateZones,
  {9ba6e869-0da1-4b75-936d-3454c15d28b5}, !- Handle
  ,                                       !- Active Institution
  ,                                       !- Active Year
  ,                                       !- Climate Zone Institution Name 1
  ,                                       !- Climate Zone Document Name 1
  ,                                       !- Climate Zone Document Year 1
  ,                                       !- Climate Zone Value 1
  CEC,                                    !- Climate Zone Institution Name 2
  California Climate Zone Descriptions,   !- Climate Zone Document Name 2
  1995,                                   !- Climate Zone Document Year 2
  ;                                       !- Climate Zone Value 2

OS:Building,
  {03cd856a-2354-413d-a6dc-227530513c43}, !- Handle
  Building 1,                             !- Name
  ,                                       !- Building Sector Type
  ,                                       !- North Axis {deg}
  ,                                       !- Nominal Floor to Floor Height {m}
  ,                                       !- Space Type Name
  ,                                       !- Default Construction Set Name
  ;                                       !- Default Schedule Set Name

OS:Facility,
  {d70d1bc8-0472-4330-9f18-33169fe5c383}; !- Handle

OS:SimulationControl,
  {bb3ef8be-7fe0-4775-a119-1cee0beef94a}; !- Handle

OS:Sizing:Parameters,
  {93c5a61b-7e00-470f-9f72-a0a84fdf9602}, !- Handle
  1.25,                                   !- Heating Sizing Factor
  1.15;                                   !- Cooling Sizing Factor

OS:Timestep,
  {6715d134-9ff7-4711-8072-a23c8387cc55}, !- Handle
  6;                                      !- Number of Timesteps per Hour

OS:ShadowCalculation,
  {db8c586d-1d19-41c6-a6bc-04218d7b9b25}, !- Handle
  20,                                     !- Calculation Frequency
  15000;                                  !- Maximum Figures in Shadow Overlap Calculations

OS:HeatBalanceAlgorithm,
  {49224f2d-472a-4ed6-8af2-d673cd37a706}, !- Handle
  ConductionTransferFunction,             !- Algorithm
  200;                                    !- Surface Temperature Upper Limit {C}

OS:RunPeriod,
  {be990c55-371d-42ba-ad20-95d663c92fba}, !- Handle
  Run Period 1,                           !- Name
  1,                                      !- Begin Month
  1,                                      !- Begin Day of Month
  12,                                     !- End Month
  31,                                     !- End Day of Month
  ,                                       !- Use Weather File Holidays and Special Days
  ,                                       !- Use Weather File Daylight Saving Period
  ,                                       !- Apply Weekend Holiday Rule
  ,                                       !- Use Weather File Rain Indicators
  ,                                       !- Use Weather File Snow Indicators
  ;                                       !- Number of Times Runperiod to be Repeated

OS:LifeCycleCost:Parameters,
  {09139b5f-a430-4998-939d-793bd79b3666}, !- Handle
  ,                                       !- Analysis Type
  ,                                       !- Discounting Convention
  ,                                       !- Inflation Approach
  ,                                       !- Real Discount Rate
  ,                                       !- Nominal Discount Rate
  ,                                       !- Inflation
  ,                                       !- Base Date Month
  ,                                       !- Base Date Year
  ,                                       !- Service Date Month
  ,                                       !- Service Date Year
  ;                                       !- Length of Study Period in Years

