
OS:Version,
  {b1d0eb59-fbe8-4de4-a3b8-7086065a2cc4}, !- Handle
  2.1.0;                                  !- Version Identifier

OS:Site,
  {f98de94f-e87b-49a1-8a38-575ec2680762}, !- Handle
  Denver Centennial  Golden   Nr,         !- Name
  39.74,                                  !- Latitude {deg}
  -105.18,                                !- Longitude {deg}
  -7,                                     !- Time Zone {hr}
  1829,                                   !- Elevation {m}
  ;                                       !- Terrain

OS:YearDescription,
  {b28f237e-40ca-487f-94a0-4b682078095d}, !- Handle
  ,                                       !- Calendar Year
  Sunday;                                 !- Day of Week for Start Day

OS:ClimateZones,
  {90232978-f972-45c1-85ce-80bf7a2edf27}, !- Handle
  ,                                       !- Active Institution
  ,                                       !- Active Year
  ASHRAE,                                 !- Climate Zone Institution Name 1
  ANSI/ASHRAE Standard 169,               !- Climate Zone Document Name 1
  2006,                                   !- Climate Zone Document Year 1
  5B,                                     !- Climate Zone Value 1
  CEC,                                    !- Climate Zone Institution Name 2
  California Climate Zone Descriptions,   !- Climate Zone Document Name 2
  1995,                                   !- Climate Zone Document Year 2
  ;                                       !- Climate Zone Value 2

OS:Building,
  {f4312b23-7ce1-4379-b37b-5a27bfb4f9d1}, !- Handle
  Building 1,                             !- Name
  ,                                       !- Building Sector Type
  ,                                       !- North Axis {deg}
  ,                                       !- Nominal Floor to Floor Height {m}
  {b7935861-a521-47ee-aae0-7b7ce8f20a52}, !- Space Type Name
  {96d515db-e9ad-486a-a49d-caf6842cadd1}, !- Default Construction Set Name
  ,                                       !- Default Schedule Set Name
  ,                                       !- Standards Number of Stories
  ,                                       !- Standards Number of Above Ground Stories
  ,                                       !- Standards Building Type
  ,                                       !- Standards Number of Living Units
  ,                                       !- Relocatable
  ;                                       !- Nominal Floor to Ceiling Height {m}

OS:Facility,
  {8919e2ca-60ff-4cf0-b209-f14c77367f4e}; !- Handle

OS:SimulationControl,
  {c1377b47-eca5-497f-a03a-2504cae9bd16}; !- Handle

OS:Sizing:Parameters,
  {2371d1b6-926e-4413-8bdc-5530951df51f}, !- Handle
  1.25,                                   !- Heating Sizing Factor
  1.15;                                   !- Cooling Sizing Factor

OS:Timestep,
  {14581c68-511e-49bc-9af8-b6391c4c9e9e}, !- Handle
  6;                                      !- Number of Timesteps per Hour

OS:ShadowCalculation,
  {ba0ce20f-09cd-4cec-bf0d-9b4817b33f97}, !- Handle
  20,                                     !- Calculation Frequency
  15000;                                  !- Maximum Figures in Shadow Overlap Calculations

OS:HeatBalanceAlgorithm,
  {46aede35-688e-4f1d-840c-e04dbe35db24}, !- Handle
  ConductionTransferFunction,             !- Algorithm
  200;                                    !- Surface Temperature Upper Limit {C}

OS:RunPeriod,
  {6df523be-a3c5-41e2-b3f3-77c8e41aeafe}, !- Handle
  Run Period 1,                           !- Name
  1,                                      !- Begin Month
  1,                                      !- Begin Day of Month
  12,                                     !- End Month
  31,                                     !- End Day of Month
  ,                                       !- Use Weather File Holidays and Special Days
  ,                                       !- Use Weather File Daylight Saving Period
  ,                                       !- Apply Weekend Holiday Rule
  ,                                       !- Use Weather File Rain Indicators
  ,                                       !- Use Weather File Snow Indicators
  ;                                       !- Number of Times Runperiod to be Repeated

OS:LifeCycleCost:Parameters,
  {48024802-f9d6-40c8-8c80-57f6b265bdf3}, !- Handle
  FEMP,                                   !- Analysis Type
  ,                                       !- Discounting Convention
  ,                                       !- Inflation Approach
  ,                                       !- Real Discount Rate
  ,                                       !- Nominal Discount Rate
  ,                                       !- Inflation
  ,                                       !- Base Date Month
  ,                                       !- Base Date Year
  ,                                       !- Service Date Month
  ,                                       !- Service Date Year
  ,                                       !- Length of Study Period in Years
  ,                                       !- Tax Rate
  ,                                       !- Depreciation Method
  Yes;                                    !- Use NIST Fuel Escalation Rates

OS:SizingPeriod:DesignDay,
  {48bb54f7-0d46-4d48-99fa-657a013361a1}, !- Handle
  Denver Centennial  Golden   N Ann Clg .4% Condns DB=>MWB, !- Name
  33,                                     !- Maximum Dry-Bulb Temperature {C}
  15.2,                                   !- Daily Dry-Bulb Temperature Range {deltaC}
  15.7,                                   !- Humidity Indicating Conditions at Maximum Dry-Bulb
  81198,                                  !- Barometric Pressure {Pa}
  4.9,                                    !- Wind Speed {m/s}
  0,                                      !- Wind Direction {deg}
  0,                                      !- Sky Clearness
  0,                                      !- Rain Indicator
  0,                                      !- Snow Indicator
  21,                                     !- Day of Month
  7,                                      !- Month
  SummerDesignDay,                        !- Day Type
  0,                                      !- Daylight Saving Time Indicator
  Wetbulb,                                !- Humidity Indicating Type
  ,                                       !- Humidity Indicating Day Schedule Name
  DefaultMultipliers,                     !- Dry-Bulb Temperature Range Modifier Type
  ,                                       !- Dry-Bulb Temperature Range Modifier Schedule Name
  ASHRAETau,                              !- Solar Model Indicator
  ,                                       !- Beam Solar Day Schedule Name
  ,                                       !- Diffuse Solar Day Schedule Name
  0.424,                                  !- ASHRAE Taub {dimensionless}
  2.025;                                  !- ASHRAE Taud {dimensionless}

OS:SizingPeriod:DesignDay,
  {9a407f9a-d09c-474f-a83d-b67e47c6bab7}, !- Handle
  Denver Centennial  Golden   N Ann Hum_n 99.6% Condns DP=>MCDB, !- Name
  -10.9,                                  !- Maximum Dry-Bulb Temperature {C}
  0,                                      !- Daily Dry-Bulb Temperature Range {deltaC}
  -21.6,                                  !- Humidity Indicating Conditions at Maximum Dry-Bulb
  81198,                                  !- Barometric Pressure {Pa}
  3,                                      !- Wind Speed {m/s}
  340,                                    !- Wind Direction {deg}
  0,                                      !- Sky Clearness
  0,                                      !- Rain Indicator
  0,                                      !- Snow Indicator
  21,                                     !- Day of Month
  12,                                     !- Month
  WinterDesignDay,                        !- Day Type
  0,                                      !- Daylight Saving Time Indicator
  Dewpoint,                               !- Humidity Indicating Type
  ,                                       !- Humidity Indicating Day Schedule Name
  DefaultMultipliers,                     !- Dry-Bulb Temperature Range Modifier Type
  ,                                       !- Dry-Bulb Temperature Range Modifier Schedule Name
  ASHRAEClearSky;                         !- Solar Model Indicator

OS:SizingPeriod:DesignDay,
  {7273edf7-afb3-4336-a8bf-8528da175ac5}, !- Handle
  Denver Centennial  Golden   N Ann Clg .4% Condns DP=>MDB, !- Name
  20.2,                                   !- Maximum Dry-Bulb Temperature {C}
  15.2,                                   !- Daily Dry-Bulb Temperature Range {deltaC}
  16.1,                                   !- Humidity Indicating Conditions at Maximum Dry-Bulb
  81198,                                  !- Barometric Pressure {Pa}
  4.9,                                    !- Wind Speed {m/s}
  0,                                      !- Wind Direction {deg}
  0,                                      !- Sky Clearness
  0,                                      !- Rain Indicator
  0,                                      !- Snow Indicator
  21,                                     !- Day of Month
  7,                                      !- Month
  SummerDesignDay,                        !- Day Type
  0,                                      !- Daylight Saving Time Indicator
  Dewpoint,                               !- Humidity Indicating Type
  ,                                       !- Humidity Indicating Day Schedule Name
  DefaultMultipliers,                     !- Dry-Bulb Temperature Range Modifier Type
  ,                                       !- Dry-Bulb Temperature Range Modifier Schedule Name
  ASHRAETau,                              !- Solar Model Indicator
  ,                                       !- Beam Solar Day Schedule Name
  ,                                       !- Diffuse Solar Day Schedule Name
  0.424,                                  !- ASHRAE Taub {dimensionless}
  2.025;                                  !- ASHRAE Taud {dimensionless}

OS:SizingPeriod:DesignDay,
  {83e1071d-eb1b-4093-a725-28bd1bdc77bf}, !- Handle
  Denver Centennial  Golden   N Ann Htg 99.6% Condns DB, !- Name
  -18.8,                                  !- Maximum Dry-Bulb Temperature {C}
  0,                                      !- Daily Dry-Bulb Temperature Range {deltaC}
  -18.8,                                  !- Humidity Indicating Conditions at Maximum Dry-Bulb
  81198,                                  !- Barometric Pressure {Pa}
  3,                                      !- Wind Speed {m/s}
  340,                                    !- Wind Direction {deg}
  0,                                      !- Sky Clearness
  0,                                      !- Rain Indicator
  0,                                      !- Snow Indicator
  21,                                     !- Day of Month
  12,                                     !- Month
  WinterDesignDay,                        !- Day Type
  0,                                      !- Daylight Saving Time Indicator
  Wetbulb,                                !- Humidity Indicating Type
  ,                                       !- Humidity Indicating Day Schedule Name
  DefaultMultipliers,                     !- Dry-Bulb Temperature Range Modifier Type
  ,                                       !- Dry-Bulb Temperature Range Modifier Schedule Name
  ASHRAEClearSky;                         !- Solar Model Indicator

OS:SizingPeriod:DesignDay,
  {bea72d96-d5ab-4919-ae75-dd7660152910}, !- Handle
  Denver Centennial  Golden   N Ann Htg Wind 99.6% Condns WS=>MCDB, !- Name
  3.9,                                    !- Maximum Dry-Bulb Temperature {C}
  0,                                      !- Daily Dry-Bulb Temperature Range {deltaC}
  3.9,                                    !- Humidity Indicating Conditions at Maximum Dry-Bulb
  81198,                                  !- Barometric Pressure {Pa}
  12.2,                                   !- Wind Speed {m/s}
  340,                                    !- Wind Direction {deg}
  0,                                      !- Sky Clearness
  0,                                      !- Rain Indicator
  0,                                      !- Snow Indicator
  21,                                     !- Day of Month
  12,                                     !- Month
  WinterDesignDay,                        !- Day Type
  0,                                      !- Daylight Saving Time Indicator
  Wetbulb,                                !- Humidity Indicating Type
  ,                                       !- Humidity Indicating Day Schedule Name
  DefaultMultipliers,                     !- Dry-Bulb Temperature Range Modifier Type
  ,                                       !- Dry-Bulb Temperature Range Modifier Schedule Name
  ASHRAEClearSky;                         !- Solar Model Indicator

OS:SizingPeriod:DesignDay,
  {c446104e-873b-476a-8844-7c16672e1629}, !- Handle
  Denver Centennial  Golden   N Ann Clg .4% Condns Enth=>MDB, !- Name
  27.3,                                   !- Maximum Dry-Bulb Temperature {C}
  15.2,                                   !- Daily Dry-Bulb Temperature Range {deltaC}
  59700,                                  !- Humidity Indicating Conditions at Maximum Dry-Bulb
  81198,                                  !- Barometric Pressure {Pa}
  4.9,                                    !- Wind Speed {m/s}
  0,                                      !- Wind Direction {deg}
  0,                                      !- Sky Clearness
  0,                                      !- Rain Indicator
  0,                                      !- Snow Indicator
  21,                                     !- Day of Month
  7,                                      !- Month
  SummerDesignDay,                        !- Day Type
  0,                                      !- Daylight Saving Time Indicator
  Enthalpy,                               !- Humidity Indicating Type
  ,                                       !- Humidity Indicating Day Schedule Name
  DefaultMultipliers,                     !- Dry-Bulb Temperature Range Modifier Type
  ,                                       !- Dry-Bulb Temperature Range Modifier Schedule Name
  ASHRAETau,                              !- Solar Model Indicator
  ,                                       !- Beam Solar Day Schedule Name
  ,                                       !- Diffuse Solar Day Schedule Name
  0.424,                                  !- ASHRAE Taub {dimensionless}
  2.025;                                  !- ASHRAE Taud {dimensionless}

OS:SizingPeriod:DesignDay,
  {597b78d6-333c-413f-87e9-80f3d3b3e7cc}, !- Handle
  Denver Centennial  Golden   N Ann Clg .4% Condns WB=>MDB, !- Name
  27.3,                                   !- Maximum Dry-Bulb Temperature {C}
  15.2,                                   !- Daily Dry-Bulb Temperature Range {deltaC}
  18.4,                                   !- Humidity Indicating Conditions at Maximum Dry-Bulb
  81198,                                  !- Barometric Pressure {Pa}
  4.9,                                    !- Wind Speed {m/s}
  0,                                      !- Wind Direction {deg}
  0,                                      !- Sky Clearness
  0,                                      !- Rain Indicator
  0,                                      !- Snow Indicator
  21,                                     !- Day of Month
  7,                                      !- Month
  SummerDesignDay,                        !- Day Type
  0,                                      !- Daylight Saving Time Indicator
  Wetbulb,                                !- Humidity Indicating Type
  ,                                       !- Humidity Indicating Day Schedule Name
  DefaultMultipliers,                     !- Dry-Bulb Temperature Range Modifier Type
  ,                                       !- Dry-Bulb Temperature Range Modifier Schedule Name
  ASHRAETau,                              !- Solar Model Indicator
  ,                                       !- Beam Solar Day Schedule Name
  ,                                       !- Diffuse Solar Day Schedule Name
  0.424,                                  !- ASHRAE Taub {dimensionless}
  2.025;                                  !- ASHRAE Taud {dimensionless}

OS:BuildingStory,
  {85a3f278-fec5-4aff-ad8c-e91c14c34b43}, !- Handle
  Building Story 1,                       !- Name
  0,                                      !- Nominal Z Coordinate {m}
  3.048,                                  !- Nominal Floor to Floor Height {m}
  ,                                       !- Default Construction Set Name
  ,                                       !- Default Schedule Set Name
  {724a93f8-4956-449f-95f0-96e5b4a16ed8}; !- Group Rendering Name

OS:Space,
  {95bc228e-5af8-4def-81f7-74e9f4f28429}, !- Handle
  Space 101,                              !- Name
  {e055d60a-45e5-4045-a4b5-0df45e45464a}, !- Space Type Name
  ,                                       !- Default Construction Set Name
  ,                                       !- Default Schedule Set Name
  ,                                       !- Direction of Relative North {deg}
  5.40559267232903,                       !- X Origin {m}
  15.4441977952165,                       !- Y Origin {m}
  0,                                      !- Z Origin {m}
  {85a3f278-fec5-4aff-ad8c-e91c14c34b43}, !- Building Story Name
  {6a699589-d2ae-4be6-9d3c-89ae16a5e4a4}, !- Thermal Zone Name
  ,                                       !- Part of Total Floor Area
  ;                                       !- Design Specification Outdoor Air Object Name

OS:Surface,
  {d9a5127a-5f0c-449b-9499-8a4499189f86}, !- Handle
  Surface 1,                              !- Name
  Floor,                                  !- Surface Type
  ,                                       !- Construction Name
  {95bc228e-5af8-4def-81f7-74e9f4f28429}, !- Space Name
  Ground,                                 !- Outside Boundary Condition
  ,                                       !- Outside Boundary Condition Object
  NoSun,                                  !- Sun Exposure
  NoWind,                                 !- Wind Exposure
  ,                                       !- View Factor to Ground
  ,                                       !- Number of Vertices
  18.1027700053205, 0, 0,                 !- X,Y,Z Vertex 1 {m}
  18.1027700053205, -12.9746375, 0,       !- X,Y,Z Vertex 2 {m}
  0, -12.9746375, 0,                      !- X,Y,Z Vertex 3 {m}
  0, 0, 0;                                !- X,Y,Z Vertex 4 {m}

OS:Surface,
  {5320e1fb-04d5-4de6-8b6c-275d278f9a14}, !- Handle
  Surface 2,                              !- Name
  Wall,                                   !- Surface Type
  ,                                       !- Construction Name
  {95bc228e-5af8-4def-81f7-74e9f4f28429}, !- Space Name
  Surface,                                !- Outside Boundary Condition
  {e5d55265-490c-49c0-af63-9890a5fd9978}, !- Outside Boundary Condition Object
  NoSun,                                  !- Sun Exposure
  NoWind,                                 !- Wind Exposure
  ,                                       !- View Factor to Ground
  ,                                       !- Number of Vertices
  18.1027700053205, 0, 3.048,             !- X,Y,Z Vertex 1 {m}
  18.1027700053205, 0, 0,                 !- X,Y,Z Vertex 2 {m}
  0, 0, 0,                                !- X,Y,Z Vertex 3 {m}
  0, 0, 3.048;                            !- X,Y,Z Vertex 4 {m}

OS:Surface,
  {d2b851a7-8d9a-4f11-b547-56cbba255aa7}, !- Handle
  Surface 3,                              !- Name
  Wall,                                   !- Surface Type
  ,                                       !- Construction Name
  {95bc228e-5af8-4def-81f7-74e9f4f28429}, !- Space Name
  Surface,                                !- Outside Boundary Condition
  {cd39ad77-35ea-48e9-9832-d1e87c0017d3}, !- Outside Boundary Condition Object
  NoSun,                                  !- Sun Exposure
  NoWind,                                 !- Wind Exposure
  ,                                       !- View Factor to Ground
  ,                                       !- Number of Vertices
  18.1027700053205, -12.9746375, 3.048,   !- X,Y,Z Vertex 1 {m}
  18.1027700053205, -12.9746375, 0,       !- X,Y,Z Vertex 2 {m}
  18.1027700053205, 0, 0,                 !- X,Y,Z Vertex 3 {m}
  18.1027700053205, 0, 3.048;             !- X,Y,Z Vertex 4 {m}

OS:Surface,
  {922123dc-527b-4451-9e0a-4dac74f475a5}, !- Handle
  Surface 4,                              !- Name
  Wall,                                   !- Surface Type
  ,                                       !- Construction Name
  {95bc228e-5af8-4def-81f7-74e9f4f28429}, !- Space Name
  Outdoors,                               !- Outside Boundary Condition
  ,                                       !- Outside Boundary Condition Object
  SunExposed,                             !- Sun Exposure
  WindExposed,                            !- Wind Exposure
  ,                                       !- View Factor to Ground
  ,                                       !- Number of Vertices
  0, -12.9746375, 3.048,                  !- X,Y,Z Vertex 1 {m}
  0, -12.9746375, 0,                      !- X,Y,Z Vertex 2 {m}
  18.1027700053205, -12.9746375, 0,       !- X,Y,Z Vertex 3 {m}
  18.1027700053205, -12.9746375, 3.048;   !- X,Y,Z Vertex 4 {m}

OS:Surface,
  {f8ed91c1-133b-4273-81b5-1b169e1ee347}, !- Handle
  Surface 5,                              !- Name
  Wall,                                   !- Surface Type
  ,                                       !- Construction Name
  {95bc228e-5af8-4def-81f7-74e9f4f28429}, !- Space Name
  Outdoors,                               !- Outside Boundary Condition
  ,                                       !- Outside Boundary Condition Object
  SunExposed,                             !- Sun Exposure
  WindExposed,                            !- Wind Exposure
  ,                                       !- View Factor to Ground
  ,                                       !- Number of Vertices
  0, 0, 3.048,                            !- X,Y,Z Vertex 1 {m}
  0, 0, 0,                                !- X,Y,Z Vertex 2 {m}
  0, -12.9746375, 0,                      !- X,Y,Z Vertex 3 {m}
  0, -12.9746375, 3.048;                  !- X,Y,Z Vertex 4 {m}

OS:Surface,
  {1229a209-5074-4003-909a-0919548cd763}, !- Handle
  Surface 6,                              !- Name
  RoofCeiling,                            !- Surface Type
  ,                                       !- Construction Name
  {95bc228e-5af8-4def-81f7-74e9f4f28429}, !- Space Name
  Surface,                                !- Outside Boundary Condition
  {8b09293b-ee8f-49fc-9cbf-28bb7404d39d}, !- Outside Boundary Condition Object
  NoSun,                                  !- Sun Exposure
  NoWind,                                 !- Wind Exposure
  ,                                       !- View Factor to Ground
  ,                                       !- Number of Vertices
  18.1027700053205, -12.9746375, 3.048,   !- X,Y,Z Vertex 1 {m}
  18.1027700053205, 0, 3.048,             !- X,Y,Z Vertex 2 {m}
  0, 0, 3.048,                            !- X,Y,Z Vertex 3 {m}
  0, -12.9746375, 3.048;                  !- X,Y,Z Vertex 4 {m}

OS:Space,
  {94db3c0f-4d20-4c48-83a5-be008f75f5c9}, !- Handle
  Space 102,                              !- Name
  {2e47e4e9-25b6-4f3c-8441-eabb63a8dd8b}, !- Space Type Name
  ,                                       !- Default Construction Set Name
  ,                                       !- Default Schedule Set Name
  ,                                       !- Direction of Relative North {deg}
  39.657492672329,                        !- X Origin {m}
  2.4695602952165,                        !- Y Origin {m}
  0,                                      !- Z Origin {m}
  {85a3f278-fec5-4aff-ad8c-e91c14c34b43}, !- Building Story Name
  {6a699589-d2ae-4be6-9d3c-89ae16a5e4a4}, !- Thermal Zone Name
  ,                                       !- Part of Total Floor Area
  ;                                       !- Design Specification Outdoor Air Object Name

OS:Surface,
  {6d7c7137-f257-47ec-82af-01d2fd1b585e}, !- Handle
  Surface 7,                              !- Name
  Floor,                                  !- Surface Type
  ,                                       !- Construction Name
  {94db3c0f-4d20-4c48-83a5-be008f75f5c9}, !- Space Name
  Ground,                                 !- Outside Boundary Condition
  ,                                       !- Outside Boundary Condition Object
  NoSun,                                  !- Sun Exposure
  NoWind,                                 !- Wind Exposure
  ,                                       !- View Factor to Ground
  ,                                       !- Number of Vertices
  0, 12.9746375, 0,                       !- X,Y,Z Vertex 1 {m}
  0, 0, 0,                                !- X,Y,Z Vertex 2 {m}
  -16.1491299946795, 0, 0,                !- X,Y,Z Vertex 3 {m}
  -16.1491299946795, 12.9746375, 0;       !- X,Y,Z Vertex 4 {m}

OS:Surface,
  {286d24a1-60fd-4cdb-90ed-79f11c928d20}, !- Handle
  Surface 8,                              !- Name
  Wall,                                   !- Surface Type
  ,                                       !- Construction Name
  {94db3c0f-4d20-4c48-83a5-be008f75f5c9}, !- Space Name
  Outdoors,                               !- Outside Boundary Condition
  ,                                       !- Outside Boundary Condition Object
  SunExposed,                             !- Sun Exposure
  WindExposed,                            !- Wind Exposure
  ,                                       !- View Factor to Ground
  ,                                       !- Number of Vertices
  -16.1491299946795, 0, 3.048,            !- X,Y,Z Vertex 1 {m}
  -16.1491299946795, 0, 0,                !- X,Y,Z Vertex 2 {m}
  0, 0, 0,                                !- X,Y,Z Vertex 3 {m}
  0, 0, 3.048;                            !- X,Y,Z Vertex 4 {m}

OS:Surface,
  {cd39ad77-35ea-48e9-9832-d1e87c0017d3}, !- Handle
  Surface 9,                              !- Name
  Wall,                                   !- Surface Type
  ,                                       !- Construction Name
  {94db3c0f-4d20-4c48-83a5-be008f75f5c9}, !- Space Name
  Surface,                                !- Outside Boundary Condition
  {d2b851a7-8d9a-4f11-b547-56cbba255aa7}, !- Outside Boundary Condition Object
  NoSun,                                  !- Sun Exposure
  NoWind,                                 !- Wind Exposure
  ,                                       !- View Factor to Ground
  ,                                       !- Number of Vertices
  -16.1491299946795, 12.9746375, 3.048,   !- X,Y,Z Vertex 1 {m}
  -16.1491299946795, 12.9746375, 0,       !- X,Y,Z Vertex 2 {m}
  -16.1491299946795, 0, 0,                !- X,Y,Z Vertex 3 {m}
  -16.1491299946795, 0, 3.048;            !- X,Y,Z Vertex 4 {m}

OS:Surface,
  {abcd9d08-e4a2-49d9-a072-4cc6c7224fe9}, !- Handle
  Surface 10,                             !- Name
  Wall,                                   !- Surface Type
  ,                                       !- Construction Name
  {94db3c0f-4d20-4c48-83a5-be008f75f5c9}, !- Space Name
  Surface,                                !- Outside Boundary Condition
  {f51ba81c-4b84-4753-bb6d-77e6a700c988}, !- Outside Boundary Condition Object
  NoSun,                                  !- Sun Exposure
  NoWind,                                 !- Wind Exposure
  ,                                       !- View Factor to Ground
  ,                                       !- Number of Vertices
  0, 12.9746375, 3.048,                   !- X,Y,Z Vertex 1 {m}
  0, 12.9746375, 0,                       !- X,Y,Z Vertex 2 {m}
  -16.1491299946795, 12.9746375, 0,       !- X,Y,Z Vertex 3 {m}
  -16.1491299946795, 12.9746375, 3.048;   !- X,Y,Z Vertex 4 {m}

OS:Surface,
  {4c8537b3-5790-402a-a223-54752938da48}, !- Handle
  Surface 11,                             !- Name
  Wall,                                   !- Surface Type
  ,                                       !- Construction Name
  {94db3c0f-4d20-4c48-83a5-be008f75f5c9}, !- Space Name
  Outdoors,                               !- Outside Boundary Condition
  ,                                       !- Outside Boundary Condition Object
  SunExposed,                             !- Sun Exposure
  WindExposed,                            !- Wind Exposure
  ,                                       !- View Factor to Ground
  ,                                       !- Number of Vertices
  0, 0, 3.048,                            !- X,Y,Z Vertex 1 {m}
  0, 0, 0,                                !- X,Y,Z Vertex 2 {m}
  0, 12.9746375, 0,                       !- X,Y,Z Vertex 3 {m}
  0, 12.9746375, 3.048;                   !- X,Y,Z Vertex 4 {m}

OS:Surface,
  {0772d653-4541-46fb-96ce-f6be7f2d2008}, !- Handle
  Surface 12,                             !- Name
  RoofCeiling,                            !- Surface Type
  ,                                       !- Construction Name
  {94db3c0f-4d20-4c48-83a5-be008f75f5c9}, !- Space Name
  Surface,                                !- Outside Boundary Condition
  {c106b927-173c-4f6c-963a-208de184ba99}, !- Outside Boundary Condition Object
  NoSun,                                  !- Sun Exposure
  NoWind,                                 !- Wind Exposure
  ,                                       !- View Factor to Ground
  ,                                       !- Number of Vertices
  0, 0, 3.048,                            !- X,Y,Z Vertex 1 {m}
  0, 12.9746375, 3.048,                   !- X,Y,Z Vertex 2 {m}
  -16.1491299946795, 12.9746375, 3.048,   !- X,Y,Z Vertex 3 {m}
  -16.1491299946795, 0, 3.048;            !- X,Y,Z Vertex 4 {m}
