
OS:Version,
  {f61e2342-dff9-4cfa-8bd5-a11abfa3ac27}, !- Handle
  1.4.0;                                  !- Version Identifier

OS:ScheduleTypeLimits,
  {b9cae4a5-68a4-470b-89ac-87af8e2a443f}, !- Handle
  Lights Schedule Type Limits,            !- Name
  0,                                      !- Lower Limit Value {BasedOnField A4}
  1,                                      !- Upper Limit Value {BasedOnField A4}
  Continuous,                             !- Numeric Type
  Dimensionless;                          !- Unit Type

OS:ScheduleTypeLimits,
  {2f910236-074b-46c3-aac0-3c1100a5389d}, !- Handle
  Occupancy Schedule Type Limits,         !- Name
  0,                                      !- Lower Limit Value {BasedOnField A4}
  1,                                      !- Upper Limit Value {BasedOnField A4}
  Continuous,                             !- Numeric Type
  Dimensionless;                          !- Unit Type

OS:ScheduleTypeLimits,
  {b9e2fb08-b333-4de0-b2fa-25ffba16b9a1}, !- Handle
  People Activity Type Limits,            !- Name
  0,                                      !- Lower Limit Value {BasedOnField A4}
  ,                                       !- Upper Limit Value {BasedOnField A4}
  Continuous,                             !- Numeric Type
  ActivityLevel;                          !- Unit Type

OS:ScheduleTypeLimits,
  {92f6dc6f-ccfa-41a8-b7f0-9bf96351aca8}, !- Handle
  Equipment Schedule Type Limits,         !- Name
  0,                                      !- Lower Limit Value {BasedOnField A4}
  1,                                      !- Upper Limit Value {BasedOnField A4}
  Continuous,                             !- Numeric Type
  Dimensionless;                          !- Unit Type

OS:ScheduleTypeLimits,
  {450d8cc2-5692-4203-abb2-00b2f644983c}, !- Handle
  Water Use Schedule Type Limits,         !- Name
  0,                                      !- Lower Limit Value {BasedOnField A4}
  1,                                      !- Upper Limit Value {BasedOnField A4}
  Continuous,                             !- Numeric Type
  Dimensionless;                          !- Unit Type

OS:ScheduleTypeLimits,
  {d5bac925-4c21-4524-af31-673a77482a61}, !- Handle
  Elevators Schedule Type Limits,         !- Name
  0,                                      !- Lower Limit Value {BasedOnField A4}
  1,                                      !- Upper Limit Value {BasedOnField A4}
  Continuous,                             !- Numeric Type
  Dimensionless;                          !- Unit Type

OS:ScheduleTypeLimits,
  {8718734a-a1c4-45f0-8fd2-ae5373cf5a49}, !- Handle
  Process Loads Schedule Type Limits,     !- Name
  0,                                      !- Lower Limit Value {BasedOnField A4}
  1,                                      !- Upper Limit Value {BasedOnField A4}
  Continuous,                             !- Numeric Type
  Dimensionless;                          !- Unit Type

OS:ScheduleTypeLimits,
  {e95593b1-9db1-4ceb-9a7f-c8b0c63302c0}, !- Handle
  Thermostat Heating Setpoint Schedule Type Limits, !- Name
  0,                                      !- Lower Limit Value {BasedOnField A4}
  100,                                    !- Upper Limit Value {BasedOnField A4}
  Continuous,                             !- Numeric Type
  Temperature;                            !- Unit Type

OS:ScheduleTypeLimits,
  {3e5e617a-b49c-4bd1-903e-50d84c586df7}, !- Handle
  Thermostat Cooling Setpoint Schedule Type Limits, !- Name
  0,                                      !- Lower Limit Value {BasedOnField A4}
  100,                                    !- Upper Limit Value {BasedOnField A4}
  Continuous,                             !- Numeric Type
  Temperature;                            !- Unit Type

OS:ScheduleTypeLimits,
  {426d5b64-4df2-4a84-b8fa-068c57136d6f}, !- Handle
  HVAC Operation Schedule Type Limits,    !- Name
  0,                                      !- Lower Limit Value {BasedOnField A4}
  1,                                      !- Upper Limit Value {BasedOnField A4}
  Discrete,                               !- Numeric Type
  Availability;                           !- Unit Type

OS:Material:AirWall,
  {16fefb22-4993-4e10-85b1-f451169c1d14}, !- Handle
  Material Air Wall 1;                    !- Name

OS:Construction,
  {0b48343f-c99e-4b75-9819-406b61df80f7}, !- Handle
  Construction 1,                         !- Name
  {94333455-001f-4859-b1c7-add4936f8413}, !- Surface Rendering Name
  {16fefb22-4993-4e10-85b1-f451169c1d14}; !- Layer 1

OS:Construction,
  {d4ef11a0-094c-412d-bd76-1a99dac79712}, !- Handle
  SLAB-ON-GRADE-FLOOR,                    !- Name
  {166ecc44-36a1-40a6-b4a3-421d47b602b9}, !- Surface Rendering Name
  {05438a79-b75a-4511-a021-47d1905209db}; !- Layer 1

OS:ComponentData,
  {f8bf7b17-4a6c-4860-91bc-af305a776467}, !- Handle
  OS:ComponentData 1,                     !- Name
  {99423b2d-1690-4d86-bafb-442e78b50dbf}, !- UUID
  {d4a1efb9-e0ce-4cba-a103-030d535c8fe8}, !- Version UUID
  ,                                       !- Creation Timestamp
  ,                                       !- Version Timestamp
  {05438a79-b75a-4511-a021-47d1905209db}; !- Name of Object 1

OS:Material,
  {05438a79-b75a-4511-a021-47d1905209db}, !- Handle
  Lightweight Concrete - 8 in. - 80 lb/ft3, ! Name
  MediumRough,                            ! Roughness
  0.2032,                                 ! Thickness {m}
  0.53,                                   ! Conductivity {W/m-K}
  1281.47706991681,                       ! Density {kg/m3}
  840;                                    ! Specific Heat {J/kg-K}

OS:Construction,
  {f2e2b822-fadd-413e-8f71-e5a341267f8a}, !- Handle
  INTERIOR-WALL,                          !- Name
  {15ad53cf-a009-4512-a360-0794958a0134}, !- Surface Rendering Name
  {be983997-7350-4d59-8189-56c64797dfb7}, !- Layer 1
  {80022d03-2da7-4f89-a678-1ee367319e6d}, !- Layer 2
  {be983997-7350-4d59-8189-56c64797dfb7}; !- Layer 3

OS:ComponentData,
  {4a79aca6-205e-4493-ad06-9ebc26c8f1a1}, !- Handle
  OS:ComponentData 2,                     !- Name
  {fc8f23d6-0b72-4750-9608-a16ba081226a}, !- UUID
  {7cdc7973-c083-47e9-98c7-8e86a3f1b92c}, !- Version UUID
  ,                                       !- Creation Timestamp
  ,                                       !- Version Timestamp
  {be983997-7350-4d59-8189-56c64797dfb7}; !- Name of Object 1

OS:Material,
  {be983997-7350-4d59-8189-56c64797dfb7}, !- Handle
  Gypsum Board - 5/8 in.,                 ! Name
  MediumSmooth,                           ! Roughness
  0.015875,                               ! Thickness {m}
  0.16,                                   ! Conductivity {W/m-K}
  800,                                    ! Density {kg/m3}
  1090;                                   ! Specific Heat {J/kg-K}

OS:Material,
  {80022d03-2da7-4f89-a678-1ee367319e6d}, !- Handle
  Wood-Framed - 4 in. Studs - 16 in. OC - R-0 Cavity Insulation, ! Name
  Smooth,                                 ! Roughness
  0.0889,                                 ! Thickness {m}
  0.367216996560281,                      ! Conductivity {W/m-K}
  126.145399069936,                       ! Density {kg/m3}
  1556.29337142857;                       ! Specific Heat {J/kg-K}

OS:ComponentData,
  {e270b615-6afb-4362-bd1d-6effbe34adec}, !- Handle
  OS:ComponentData 3,                     !- Name
  {0e17b719-d1be-467c-9747-01bb7cf9361b}, !- UUID
  {53aaab8e-7379-449e-b3cd-68ba9d61fef4}, !- Version UUID
  ,                                       !- Creation Timestamp
  ,                                       !- Version Timestamp
  {80022d03-2da7-4f89-a678-1ee367319e6d}; !- Name of Object 1

OS:Construction,
  {697f9dee-171a-4123-8e99-b9c203ba844b}, !- Handle
  Default interior ceiling,               !- Name
  {35a3d219-088d-4408-b83a-972dd8989310}, !- Surface Rendering Name
  {f9e853fc-27c5-4107-9b6b-dfa10fa66ac8}; !- Layer 1

OS:Material,
  {b0b25e4b-ae9f-423f-93ad-d41a071adcfc}, !- Handle
  Carpet - 1/2 in.,                       ! Name
  MediumRough,                            ! Roughness
  0.0127,                                 ! Thickness {m}
  0.06,                                   ! Conductivity {W/m-K}
  288,                                    ! Density {kg/m3}
  1380;                                   ! Specific Heat {J/kg-K}

OS:ComponentData,
  {d57c3934-53d2-49a7-a70a-68f728260999}, !- Handle
  OS:ComponentData 4,                     !- Name
  {f135dc61-c030-48c2-bcfd-bf2f1e84db95}, !- UUID
  {27d4cac7-02d9-440d-bc68-55fc405ad9f8}, !- Version UUID
  ,                                       !- Creation Timestamp
  ,                                       !- Version Timestamp
  {b0b25e4b-ae9f-423f-93ad-d41a071adcfc}; !- Name of Object 1

OS:Construction,
  {f5bde18a-7c2d-4b13-9e4b-a780585e0aeb}, !- Handle
  EXTERIOR-WALL,                          !- Name
  {76b29016-5f13-4576-9516-d01a23816573}, !- Surface Rendering Name
  {b98ca28e-7d56-4cfe-a438-7185063861c5}, !- Layer 1
  {18f953a9-cf23-4b4b-a664-001bba3e41d2}, !- Layer 2
  {2374d407-464f-4993-9706-7d0f98391659}; !- Layer 3

OS:ComponentData,
  {e1734eff-a2ef-4176-b4f6-9fc91523b4b5}, !- Handle
  OS:ComponentData 5,                     !- Name
  {06acf0a1-b85a-4ac2-b7ad-073a0bd1f678}, !- UUID
  {dd36aa6a-d496-4ec5-99fa-1399d54c6d63}, !- Version UUID
  ,                                       !- Creation Timestamp
  ,                                       !- Version Timestamp
  {b98ca28e-7d56-4cfe-a438-7185063861c5}; !- Name of Object 1

OS:Material,
  {b98ca28e-7d56-4cfe-a438-7185063861c5}, !- Handle
  Stucco - 1 in.,                         ! Name
  Smooth,                                 ! Roughness
  0.0254,                                 ! Thickness {m}
  0.72,                                   ! Conductivity {W/m-K}
  1858.14175137938,                       ! Density {kg/m3}
  840;                                    ! Specific Heat {J/kg-K}

OS:Material,
  {18f953a9-cf23-4b4b-a664-001bba3e41d2}, !- Handle
  Expanded Polystyrene - Molded Beads - 4 in., ! Name
  VeryRough,                              ! Roughness
  0.1016,                                 ! Thickness {m}
  0.0352,                                 ! Conductivity {W/m-K}
  24,                                     ! Density {kg/m3}
  1210;                                   ! Specific Heat {J/kg-K}

OS:ComponentData,
  {b6be8f4f-67bc-4935-8fa7-bf7c611534b9}, !- Handle
  OS:ComponentData 6,                     !- Name
  {58cb8aa8-882b-4da9-b4cd-13158538207d}, !- UUID
  {347f8a2c-d1b3-4b13-b413-c5c46f6e8cd8}, !- Version UUID
  ,                                       !- Creation Timestamp
  ,                                       !- Version Timestamp
  {18f953a9-cf23-4b4b-a664-001bba3e41d2}; !- Name of Object 1

OS:ComponentData,
  {e50aba35-c67c-4180-a748-209fa37bb959}, !- Handle
  OS:ComponentData 7,                     !- Name
  {e45efc2c-a3e1-4595-9c67-7d6cd39f62f4}, !- UUID
  {7d9e38c5-ca85-4076-8794-4a441ffc9fb6}, !- Version UUID
  ,                                       !- Creation Timestamp
  ,                                       !- Version Timestamp
  {2374d407-464f-4993-9706-7d0f98391659}; !- Name of Object 1

OS:Material,
  {2374d407-464f-4993-9706-7d0f98391659}, !- Handle
  Concrete Block - 8 in. - 115 lb/ft3 - Solid Grouted, ! Name
  MediumRough,                            ! Roughness
  0.2032,                                 ! Thickness {m}
  1.31535834644226,                       ! Conductivity {W/m-K}
  1842.12328800542,                       ! Density {kg/m3}
  911.994260869565;                       ! Specific Heat {J/kg-K}

OS:Construction,
  {1f7581df-85ba-40ed-970f-0a81066d4b37}, !- Handle
  EXTERIOR-ROOF,                          !- Name
  {c342439c-e232-44a9-ac1d-12a9db59ff7f}, !- Surface Rendering Name
  {1b8e8a0b-714a-4fc1-880a-519634062733}, !- Layer 1
  {2d98b3de-fbaa-4bc4-817e-79b2eb8ac1f6}, !- Layer 2
  {e77a92c4-6587-44f8-9de7-aa869216a133}, !- Layer 3
  {b4019e4c-c5ae-4843-9f63-dd67a87de9e7}; !- Layer 4

OS:ComponentData,
  {3118221f-0947-4f40-b483-01a17e1369a8}, !- Handle
  OS:ComponentData 8,                     !- Name
  {ea7cff06-8eeb-4909-970f-4a5510dec322}, !- UUID
  {64817b4e-076d-4592-88fc-e375787220ef}, !- Version UUID
  ,                                       !- Creation Timestamp
  ,                                       !- Version Timestamp
  {1b8e8a0b-714a-4fc1-880a-519634062733}; !- Name of Object 1

OS:Material,
  {1b8e8a0b-714a-4fc1-880a-519634062733}, !- Handle
  Built-up Roofing - 3/8 in.,             ! Name
  Rough,                                  ! Roughness
  0.009525,                               ! Thickness {m}
  0.16,                                   ! Conductivity {W/m-K}
  1120,                                   ! Density {kg/m3}
  1460;                                   ! Specific Heat {J/kg-K}

OS:ComponentData,
  {90fa0d13-a1a5-4be0-bbe6-bd59026e276b}, !- Handle
  OS:ComponentData 9,                     !- Name
  {53370f06-ff9d-43d1-99ff-d9d9418f16a1}, !- UUID
  {15eef9b1-d134-4f5d-8de1-5e6364e00ebd}, !- Version UUID
  ,                                       !- Creation Timestamp
  ,                                       !- Version Timestamp
  {2d98b3de-fbaa-4bc4-817e-79b2eb8ac1f6}; !- Name of Object 1

OS:Material,
  {2d98b3de-fbaa-4bc4-817e-79b2eb8ac1f6}, !- Handle
  Hardboard - High Density - Standard-tempered Grade - 3/4 in., ! Name
  Smooth,                                 ! Roughness
  0.01905,                                ! Thickness {m}
  0.144,                                  ! Conductivity {W/m-K}
  1010,                                   ! Density {kg/m3}
  1340;                                   ! Specific Heat {J/kg-K}

OS:ComponentData,
  {8b3fe6db-a532-46ed-90e8-6e33bf3f6750}, !- Handle
  OS:ComponentData 10,                    !- Name
  {676c3b20-fc9c-4c9e-856a-5a1c3b7fb8ed}, !- UUID
  {666ec6ea-15e4-4ef9-9131-9eb62d50da71}, !- Version UUID
  ,                                       !- Creation Timestamp
  ,                                       !- Version Timestamp
  {e77a92c4-6587-44f8-9de7-aa869216a133}; !- Name of Object 1

OS:Material,
  {e77a92c4-6587-44f8-9de7-aa869216a133}, !- Handle
  Mineral Fiber Batt Insulation - 10 in., ! Name
  VeryRough,                              ! Roughness
  0.254,                                  ! Thickness {m}
  0.05,                                   ! Conductivity {W/m-K}
  19,                                     ! Density {kg/m3}
  960;                                    ! Specific Heat {J/kg-K}

OS:ComponentData,
  {a725b3ff-6263-4935-b9f5-24329840a364}, !- Handle
  OS:ComponentData 11,                    !- Name
  {53f847f4-c3e7-47e1-acd0-4db7d4e52f2c}, !- UUID
  {d7aecb37-edad-479b-90c6-2a19af3775ff}, !- Version UUID
  ,                                       !- Creation Timestamp
  ,                                       !- Version Timestamp
  {b4019e4c-c5ae-4843-9f63-dd67a87de9e7}; !- Name of Object 1

OS:Material,
  {b4019e4c-c5ae-4843-9f63-dd67a87de9e7}, !- Handle
  Vegetable Fiber Board Sheathing - Regular Density - 1/2 in., ! Name
  Smooth,                                 ! Roughness
  0.0127,                                 ! Thickness {m}
  0.055,                                  ! Conductivity {W/m-K}
  290,                                    ! Density {kg/m3}
  1300;                                   ! Specific Heat {J/kg-K}

OS:Schedule:Day,
  {6ca380d7-ac79-42ea-85e5-69b74dc5f438}, !- Handle
  All Weekends,                           !- Name
  {2f910236-074b-46c3-aac0-3c1100a5389d}, !- Schedule Type Limits Name
  ,                                       !- Interpolate to Timestep
  24,                                     !- Hour 1
  0,                                      !- Minute 1
  0;                                      !- Value Until Time 1

OS:Schedule:Day,
  {53f8b4f7-f52b-4793-8ecd-66d609f2f88e}, !- Handle
  All Weekdays,                           !- Name
  {2f910236-074b-46c3-aac0-3c1100a5389d}, !- Schedule Type Limits Name
  ,                                       !- Interpolate to Timestep
  9,                                      !- Hour 1
  30,                                     !- Minute 1
  0,                                      !- Value Until Time 1
  12,                                     !- Hour 2
  30,                                     !- Minute 2
  0.2,                                    !- Value Until Time 2
  14,                                     !- Hour 3
  45,                                     !- Minute 3
  0.5975,                                 !- Value Until Time 3
  17,                                     !- Hour 4
  15,                                     !- Minute 4
  0.1975,                                 !- Value Until Time 4
  24,                                     !- Hour 5
  0,                                      !- Minute 5
  0;                                      !- Value Until Time 5

OS:Schedule:Day,
  {0a1aa687-591e-4c2d-bc6f-093729022f5c}, !- Handle
  All Weekends 1,                         !- Name
  {2f910236-074b-46c3-aac0-3c1100a5389d}, !- Schedule Type Limits Name
  ,                                       !- Interpolate to Timestep
  24,                                     !- Hour 1
  0,                                      !- Minute 1
  0;                                      !- Value Until Time 1

OS:Schedule:Day,
  {1c80d0c6-f565-4791-933f-a42015ac8e52}, !- Handle
  All Weekdays 1,                         !- Name
  {2f910236-074b-46c3-aac0-3c1100a5389d}, !- Schedule Type Limits Name
  ,                                       !- Interpolate to Timestep
  9,                                      !- Hour 1
  30,                                     !- Minute 1
  0,                                      !- Value Until Time 1
  12,                                     !- Hour 2
  30,                                     !- Minute 2
  0.2,                                    !- Value Until Time 2
  14,                                     !- Hour 3
  45,                                     !- Minute 3
  0.5975,                                 !- Value Until Time 3
  17,                                     !- Hour 4
  15,                                     !- Minute 4
  0.1975,                                 !- Value Until Time 4
  24,                                     !- Hour 5
  0,                                      !- Minute 5
  0;                                      !- Value Until Time 5

OS:Schedule:Day,
  {e1e5aa4a-f5a5-4732-963e-7e8247b8ecd3}, !- Handle
  All Weekends 2,                         !- Name
  {426d5b64-4df2-4a84-b8fa-068c57136d6f}, !- Schedule Type Limits Name
  ,                                       !- Interpolate to Timestep
  24,                                     !- Hour 1
  0,                                      !- Minute 1
  0.995;                                  !- Value Until Time 1

OS:Schedule:Day,
  {9a4b09f2-2344-43d6-a6fd-a7ca37bfd37a}, !- Handle
  All Weekdays 2,                         !- Name
  {426d5b64-4df2-4a84-b8fa-068c57136d6f}, !- Schedule Type Limits Name
  ,                                       !- Interpolate to Timestep
  24,                                     !- Hour 1
  0,                                      !- Minute 1
  0.995;                                  !- Value Until Time 1

OS:Schedule:Day,
  {60a936b6-054e-4da7-b3b3-7b0db27ebebd}, !- Handle
  All Weekends 3,                         !- Name
  {e95593b1-9db1-4ceb-9a7f-c8b0c63302c0}, !- Schedule Type Limits Name
  ,                                       !- Interpolate to Timestep
  24,                                     !- Hour 1
  0,                                      !- Minute 1
  12.7222222222222;                       !- Value Until Time 1

OS:Schedule:Day,
  {a466600e-27f0-438e-9423-9819a0e4c915}, !- Handle
  All Weekdays 3,                         !- Name
  {e95593b1-9db1-4ceb-9a7f-c8b0c63302c0}, !- Schedule Type Limits Name
  ,                                       !- Interpolate to Timestep
  9,                                      !- Hour 1
  0,                                      !- Minute 1
  19.2777777777778,                       !- Value Until Time 1
  16,                                     !- Hour 2
  0,                                      !- Minute 2
  20,                                     !- Value Until Time 2
  24,                                     !- Hour 3
  0,                                      !- Minute 3
  12.7777777777778;                       !- Value Until Time 3

OS:Schedule:Day,
  {47f8bcb9-bc8d-41a6-8651-8d341251c33b}, !- Handle
  All Weekends 4,                         !- Name
  {3e5e617a-b49c-4bd1-903e-50d84c586df7}, !- Schedule Type Limits Name
  ,                                       !- Interpolate to Timestep
  24,                                     !- Hour 1
  0,                                      !- Minute 1
  29.2222222222222;                       !- Value Until Time 1

OS:Schedule:Day,
  {f62fba11-ca2c-4f71-b90f-36394c991aca}, !- Handle
  All Weekdays 4,                         !- Name
  {3e5e617a-b49c-4bd1-903e-50d84c586df7}, !- Schedule Type Limits Name
  ,                                       !- Interpolate to Timestep
  8,                                      !- Hour 1
  0,                                      !- Minute 1
  24.5,                                   !- Value Until Time 1
  16,                                     !- Hour 2
  15,                                     !- Minute 2
  24.5,                                   !- Value Until Time 2
  24,                                     !- Hour 3
  0,                                      !- Minute 3
  29.3333333333333;                       !- Value Until Time 3

OS:Schedule:Day,
  {c57500a3-39fc-4b43-99a2-08f1d24380a9}, !- Handle
  All Weekends 5,                         !- Name
  {450d8cc2-5692-4203-abb2-00b2f644983c}, !- Schedule Type Limits Name
  ,                                       !- Interpolate to Timestep
  24,                                     !- Hour 1
  0,                                      !- Minute 1
  0;                                      !- Value Until Time 1

OS:Schedule:Day,
  {cfbd308d-5119-4ee2-944e-6797adba00c3}, !- Handle
  All Weekdays 5,                         !- Name
  {450d8cc2-5692-4203-abb2-00b2f644983c}, !- Schedule Type Limits Name
  ,                                       !- Interpolate to Timestep
  9,                                      !- Hour 1
  15,                                     !- Minute 1
  0.05,                                   !- Value Until Time 1
  16,                                     !- Hour 2
  0,                                      !- Minute 2
  0.1525,                                 !- Value Until Time 2
  24,                                     !- Hour 3
  0,                                      !- Minute 3
  0;                                      !- Value Until Time 3

OS:Schedule:Day,
  {3c3e3458-cd48-4dc2-8cde-2918327f31e2}, !- Handle
  All Weekends 6,                         !- Name
  {92f6dc6f-ccfa-41a8-b7f0-9bf96351aca8}, !- Schedule Type Limits Name
  ,                                       !- Interpolate to Timestep
  24,                                     !- Hour 1
  0,                                      !- Minute 1
  0.3025;                                 !- Value Until Time 1

OS:Schedule:Day,
  {ada65b71-7ac3-4930-88ed-a22049faea59}, !- Handle
  All Weekdays 6,                         !- Name
  {92f6dc6f-ccfa-41a8-b7f0-9bf96351aca8}, !- Schedule Type Limits Name
  ,                                       !- Interpolate to Timestep
  9,                                      !- Hour 1
  0,                                      !- Minute 1
  0.2975,                                 !- Value Until Time 1
  16,                                     !- Hour 2
  0,                                      !- Minute 2
  0.8475,                                 !- Value Until Time 2
  24,                                     !- Hour 3
  0,                                      !- Minute 3
  0.3025;                                 !- Value Until Time 3

OS:Schedule:Day,
  {ce33d821-6cdd-495e-9d07-432ca5fce5a9}, !- Handle
  All Weekends 7,                         !- Name
  {b9cae4a5-68a4-470b-89ac-87af8e2a443f}, !- Schedule Type Limits Name
  ,                                       !- Interpolate to Timestep
  24,                                     !- Hour 1
  0,                                      !- Minute 1
  0;                                      !- Value Until Time 1

OS:Schedule:Day,
  {f9994bcc-0e4b-4792-bd3b-ff5b3fdd8d77}, !- Handle
  All Weekdays 7,                         !- Name
  {b9cae4a5-68a4-470b-89ac-87af8e2a443f}, !- Schedule Type Limits Name
  ,                                       !- Interpolate to Timestep
  9,                                      !- Hour 1
  0,                                      !- Minute 1
  0.5,                                    !- Value Until Time 1
  11,                                     !- Hour 2
  15,                                     !- Minute 2
  0.6575,                                 !- Value Until Time 2
  14,                                     !- Hour 3
  0,                                      !- Minute 3
  0.925,                                  !- Value Until Time 3
  16,                                     !- Hour 4
  0,                                      !- Minute 4
  0.6525,                                 !- Value Until Time 4
  24,                                     !- Hour 5
  0,                                      !- Minute 5
  0.0475;                                 !- Value Until Time 5

OS:Schedule:Day,
  {f3764cf2-32db-4c2c-bd27-2dc83d8a6744}, !- Handle
  All Weekends 8,                         !- Name
  {2f910236-074b-46c3-aac0-3c1100a5389d}, !- Schedule Type Limits Name
  ,                                       !- Interpolate to Timestep
  24,                                     !- Hour 1
  0,                                      !- Minute 1
  0;                                      !- Value Until Time 1

OS:Schedule:Day,
  {69b75423-5438-4bc5-9c30-9dad2c4e409a}, !- Handle
  All Weekdays 8,                         !- Name
  {2f910236-074b-46c3-aac0-3c1100a5389d}, !- Schedule Type Limits Name
  ,                                       !- Interpolate to Timestep
  9,                                      !- Hour 1
  0,                                      !- Minute 1
  0,                                      !- Value Until Time 1
  16,                                     !- Hour 2
  0,                                      !- Minute 2
  0.805,                                  !- Value Until Time 2
  24,                                     !- Hour 3
  0,                                      !- Minute 3
  0;                                      !- Value Until Time 3

OS:Schedule:Ruleset,
  {8d405838-fb89-48cd-a554-3b7171d6e55a}, !- Handle
  Meeting room Space Occupancy,           !- Name
  {2f910236-074b-46c3-aac0-3c1100a5389d}, !- Schedule Type Limits Name
  {c5deb066-7c0c-48a9-8e6f-74aa8e913901}, !- Default Day Schedule Name
  {8a0e4397-d162-4801-9380-549bea9833e0}, !- Summer Design Day Schedule Name
  {ff51d5b7-7f9b-4496-a9c5-1803e9df989c}; !- Winter Design Day Schedule Name

OS:Schedule:Day,
  {c5deb066-7c0c-48a9-8e6f-74aa8e913901}, !- Handle
  Meeting room Space Occupancy Default Weekday Schedule, !- Name
  {2f910236-074b-46c3-aac0-3c1100a5389d}, !- Schedule Type Limits Name
  ,                                       !- Interpolate to Timestep
  9,                                      !- Hour 1
  30,                                     !- Minute 1
  0,                                      !- Value Until Time 1
  12,                                     !- Hour 2
  30,                                     !- Minute 2
  0.2,                                    !- Value Until Time 2
  14,                                     !- Hour 3
  45,                                     !- Minute 3
  0.5975,                                 !- Value Until Time 3
  17,                                     !- Hour 4
  15,                                     !- Minute 4
  0.1975,                                 !- Value Until Time 4
  24,                                     !- Hour 5
  0,                                      !- Minute 5
  0;                                      !- Value Until Time 5

OS:Schedule:Rule,
  {771028f9-19f8-4ec0-81f5-55718acd8e22}, !- Handle
  Meeting room Space Occupancy Default Weekend Schedule, !- Name
  {8d405838-fb89-48cd-a554-3b7171d6e55a}, !- Schedule Ruleset Name
  0,                                      !- Rule Order
  {7c8a3230-d31c-4dc6-909f-db5394a0d911}, !- Day Schedule Name
  Yes,                                    !- Apply Sunday
  No,                                     !- Apply Monday
  No,                                     !- Apply Tuesday
  No,                                     !- Apply Wednesday
  No,                                     !- Apply Thursday
  No,                                     !- Apply Friday
  Yes;                                    !- Apply Saturday

OS:Schedule:Day,
  {7c8a3230-d31c-4dc6-909f-db5394a0d911}, !- Handle
  All Weekends 9,                         !- Name
  {2f910236-074b-46c3-aac0-3c1100a5389d}, !- Schedule Type Limits Name